**

** Heading +++++++++++++++++++++++++++++++++++++++++++++++++

**

*Heading

Hash: qb2Pg5Vx, Date: 05/14/2026, Unit system: MM_TON_S_C

**

** Nodes +++++++++++++++++++++++++++++++++++++++++++++++++++

**

*Node

1, 3.75000000E+001, 1.66994856E+001

2, 3.50000000E+001, 1.66994856E+001

3, 3.50000000E+001, 1.16994856E+001

4, 3.70000000E+001, 1.16994856E+001

5, 3.70000000E+001, 1.28618789E+001

6, 3.75174497E+001, 1.33615743E+001

7, 5.00000000E+001, 1.29256741E+001

8, 5.00000000E+001, 1.31756741E+001

9, 3.77738533E+001, 1.42453233E+001

10, 3.75000000E+001, 1.45441817E+001

11, 3.73075000E+001, 1.66994856E+001

12, 3.71150000E+001, 1.66994856E+001

13, 3.69225000E+001, 1.66994856E+001

14, 3.67300000E+001, 1.66994856E+001

15, 3.65375000E+001, 1.66994856E+001

16, 3.63450000E+001, 1.66994856E+001

17, 3.61525000E+001, 1.66994856E+001

18, 3.59600000E+001, 1.66994856E+001

19, 3.57675000E+001, 1.66994856E+001

20, 3.55750000E+001, 1.66994856E+001
** ... 4389 like lines cut
**

** Elements ++++++++++++++++++++++++++++++++++++++++++++++++

**

*Element, Type=CAX6, Elset=Shell_part-1

1, 1, 11, 199, 605, 606, 607

2, 11, 12, 200, 608, 609, 610

3, 13, 14, 201, 611, 612, 613

4, 15, 16, 202, 614, 615, 616

5, 17, 18, 203, 617, 618, 619

6, 19, 20, 204, 620, 621, 622

7, 21, 22, 205, 623, 624, 625

8, 22, 2, 23, 626, 627, 628

9, 23, 24, 206, 629, 630, 631

10, 25, 26, 207, 632, 633, 634

11, 27, 28, 208, 635, 636, 637

12, 29, 30, 209, 638, 639, 640

13, 31, 32, 210, 641, 642, 643

14, 33, 34, 211, 644, 645, 646

15, 35, 36, 212, 647, 648, 649

16, 37, 38, 213, 650, 651, 652

17, 39, 40, 214, 653, 654, 655

18, 41, 42, 215, 656, 657, 658

19, 43, 44, 216, 659, 660, 661

20, 45, 46, 217, 662, 663, 664
** ... 1975 like lines cut
**

** Node sets +++++++++++++++++++++++++++++++++++++++++++++++

**

*Nset, Nset=rightandleft

1, 2, 3, 4, 11, 12, 13, 14, 15, 16, 17, 18, 19, 20, 21, 22,

47, 48, 49, 50, 51, 52, 53, 54, 55, 605, 608, 611, 614, 617, 620, 623,

626, 666, 668, 671, 674, 677, 680, 933, 936, 939, 942, 945, 987, 990, 993, 997

**

** Element sets ++++++++++++++++++++++++++++++++++++++++++++

**

*Elset, Elset=Element_Set-1

1, 2, 3, 4, 5, 6, 7, 8, 9, 10, 11, 12, 13, 14, 15, 16,

17, 18, 19, 20, 21, 22, 23, 24, 25, 26, 27, 28, 29, 30, 31, 32,

33, 34, 35, 36, 37, 38, 39, 40, 41, 42, 43, 44, 45, 46, 47, 48,

49, 50, 51, 52, 53, 54, 55, 56, 57, 58, 59, 60, 61, 62, 63, 64,

65, 66, 67, 68, 69, 70, 71, 72, 73, 74, 75, 76, 77, 78, 79, 80,

81, 82, 83, 84, 85, 86, 87, 88, 89, 90, 91, 92, 93, 94, 95, 96,

97, 98, 99, 100, 101, 102, 103, 104, 105, 106, 107, 108, 109, 110, 111, 112,

113, 114, 115, 116, 117, 118, 119, 120, 121, 122, 123, 124, 125, 126, 127, 128,

129, 130, 131, 132, 133, 134, 135, 136, 137, 138, 139, 140, 141, 142, 143, 144,

145, 146, 147, 148, 149, 150, 151, 152, 153, 154, 155, 156, 157, 158, 159, 160,

161, 162, 163, 164, 165, 166, 167, 168, 169, 170, 171, 172, 173, 174, 175, 176,

177, 178, 179, 180, 181, 182, 183, 184, 185, 186, 187, 188, 189, 190, 191, 192,

193, 194, 195, 196, 197, 198, 199, 200, 201, 202, 203, 204, 205, 206, 207, 208,

209, 210, 211, 212, 213, 214, 215, 216, 217, 218, 219, 220, 221, 222, 223, 224,

225, 226, 227, 228, 229, 230, 231, 232, 233, 234, 235, 236, 237, 238, 239, 240,

241, 242, 243, 244, 245, 246, 247, 248, 249, 250, 251, 252, 253, 254, 255, 256,

257, 258, 259, 260, 261, 262, 263, 264, 265, 266, 267, 268, 269, 270, 271, 272,

273, 274, 275, 276, 277, 278, 279, 280, 281, 282, 283, 284, 285, 286, 287, 288,

289, 290, 291, 292, 293, 294, 295, 296, 297, 298, 299, 300, 301, 302, 303, 304,

305, 306, 307, 308, 309, 310, 311, 312, 313, 314, 315, 316, 317, 318, 319, 320,
** ... 87 like lines cut
*Elset, Elset=Missing_section-1

1, 2, 3, 4, 5, 6, 7, 8, 9, 10, 11, 12, 13, 14, 15, 16,

17, 18, 19, 20, 21, 22, 23, 24, 25, 26, 27, 28, 29, 30, 31, 32,

33, 34, 35, 36, 37, 38, 39, 40, 41, 42, 43, 44, 45, 46, 47, 48,

49, 50, 51, 52, 53, 54, 55, 56, 57, 58, 59, 60, 61, 62, 63, 64,

65, 66, 67, 68, 69, 70, 71, 72, 73, 74, 75, 76, 77, 78, 79, 80,

81, 82, 83, 84, 85, 86, 87, 88, 89, 90, 91, 92, 93, 94, 95, 96,

97, 98, 99, 100, 101, 102, 103, 104, 105, 106, 107, 108, 109, 110, 111, 112,

113, 114, 115, 116, 117, 118, 119, 120, 121, 122, 123, 124, 125, 126, 127, 128,

129, 130, 131, 132, 133, 134, 135, 136, 137, 138, 139, 140, 141, 142, 143, 144,

145, 146, 147, 148, 149, 150, 151, 152, 153, 154, 155, 156, 157, 158, 159, 160,

161, 162, 163, 164, 165, 166, 167, 168, 169, 170, 171, 172, 173, 174, 175, 176,

177, 178, 179, 180, 181, 182, 183, 184, 185, 186, 187, 188, 189, 190, 191, 192,

193, 194, 195, 196, 197, 198, 199, 200, 201, 202, 203, 204, 205, 206, 207, 208,

209, 210, 211, 212, 213, 214, 215, 216, 217, 218, 219, 220, 221, 222, 223, 224,

225, 226, 227, 228, 229, 230, 231, 232, 233, 234, 235, 236, 237, 238, 239, 240,

241, 242, 243, 244, 245, 246, 247, 248, 249, 250, 251, 252, 253, 254, 255, 256,

257, 258, 259, 260, 261, 262, 263, 264, 265, 266, 267, 268, 269, 270, 271, 272,

273, 274, 275, 276, 277, 278, 279, 280, 281, 282, 283, 284, 285, 286, 287, 288,

289, 290, 291, 292, 293, 294, 295, 296, 297, 298, 299, 300, 301, 302, 303, 304,

305, 306, 307, 308, 309, 310, 311, 312, 313, 314, 315, 316, 317, 318, 319, 320,
** ... 87 like lines cut
*Elset, Elset=Internal_Selection-1_Solid_Section-1

Shell_part-1

**

** Surfaces ++++++++++++++++++++++++++++++++++++++++++++++++

**

**

** Physical constants ++++++++++++++++++++++++++++++++++++++

**

**

** Coordinate systems ++++++++++++++++++++++++++++++++++++++

**

**

** Materials +++++++++++++++++++++++++++++++++++++++++++++++

**

*Material, Name=Material-1

*Density

7.77E-09

*Elastic

183839.162351231, 2.80995242E-001

**

** Sections ++++++++++++++++++++++++++++++++++++++++++++++++

**

*Solid section, Elset=Internal_Selection-1_Solid_Section-1, Material=Material-1

1

**

** Pre-tension sections ++++++++++++++++++++++++++++++++++++

**

**

** Constraints +++++++++++++++++++++++++++++++++++++++++++++

**

**

** Surface interactions ++++++++++++++++++++++++++++++++++++

**

**

** Contact pairs +++++++++++++++++++++++++++++++++++++++++++

**

**

** Amplitudes ++++++++++++++++++++++++++++++++++++++++++++++

**

**

** Initial conditions ++++++++++++++++++++++++++++++++++++++

**

**

** Steps +++++++++++++++++++++++++++++++++++++++++++++++++++

**

**

** Step-1 ++++++++++++++++++++++++++++++++++++++++++++++++++

**

*Step

*Static, Solver=Pardiso

**

** Controls ++++++++++++++++++++++++++++++++++++++++++++++++

**

**

** Output frequency ++++++++++++++++++++++++++++++++++++++++

**

*Output, Frequency=1

**

** Boundary conditions +++++++++++++++++++++++++++++++++++++

**

*Boundary, op=New

** Name: Displacement_Rotation-1

*Boundary

rightandleft, 1, 1, 0

rightandleft, 2, 2, 0

**

** Loads +++++++++++++++++++++++++++++++++++++++++++++++++++

**

*Cload, op=New

*Dload, op=New

** Name: Centrifugal_Load-1

*Dload

Element_Set-1, CENTRIF, 1096606.8961, 0, 0, 0, 0, 1, 0

**

** Defined fields ++++++++++++++++++++++++++++++++++++++++++

**

**

** History outputs +++++++++++++++++++++++++++++++++++++++++

**

**

** Field outputs +++++++++++++++++++++++++++++++++++++++++++

**

*Node file

RF, U

*El file

S, E, NOE

**

** End step ++++++++++++++++++++++++++++++++++++++++++++++++

**

*End step

**

** Step-2 ++++++++++++++++++++++++++++++++++++++++++++++++++

**

*Step, Perturbation

*Frequency, Solver=Pardiso

10

**

** Controls ++++++++++++++++++++++++++++++++++++++++++++++++

**

**

** Output frequency ++++++++++++++++++++++++++++++++++++++++

**

*Output, Frequency=1

**

** Boundary conditions +++++++++++++++++++++++++++++++++++++

**

*Boundary, op=New

** Name: Displacement_Rotation-2

*Boundary

rightandleft, 1, 1, 0

rightandleft, 2, 2, 0

**

** Loads +++++++++++++++++++++++++++++++++++++++++++++++++++

**

**

** Defined fields ++++++++++++++++++++++++++++++++++++++++++

**

**

** History outputs +++++++++++++++++++++++++++++++++++++++++

**

**

** Field outputs +++++++++++++++++++++++++++++++++++++++++++

**

*Node file

RF, U

*El file

S, E, NOE

*Node file

RF, U

*El file

S, E, NOE

**

** End step ++++++++++++++++++++++++++++++++++++++++++++++++

**

*End step
